576
Lattice="55.044 0.0 0.0 0.0 32.3874 0.0 0.0 0.0 30.0" Origin="-18.348 0.0 0.0" Properties=species:S:1:pos:R:3
H -11.929924644 4.3982494043 2.89467
H -12.713200764 5.8063321035 2.910465
H -15.592075356 0.3498244043 3.10533
H -14.808799236 1.7579071035 3.089535
H -10.54037556 3.4298337568 4.122435
H -9.56449131 4.0328385637 3.055965
H -16.98162444 7.4782587568 1.877565
H -17.95750869 8.0812635637 2.944035
H -11.005075356 0.3498001137 2.89467
H -10.221771714 1.7578585224 2.91045
H -16.516924644 4.3982251137 3.10533
H -17.300228286 5.8062835224 3.08955
H -15.12732969 3.429882338 1.87755
H -14.151482136 4.0328709511 2.94405
H -12.39467031 7.4783073379 4.12245
H -13.370517864 8.0812959512 3.05595
O -12.821600748 4.8231801891 2.97453
O -14.700399252 0.7747551891 3.02547
O -10.43106735 3.4959364402 3.156645
O -17.09093265 7.5443614403 2.843355
O -10.113380904 0.774706608 2.974485
O -17.408619096 4.823131608 3.025515
O -15.018058176 3.4959688277 2.84334
O -12.503941824 7.5443938277 3.15666
H -11.929924644 12.4950994043 2.89467
H -12.713200764 13.9031821035 2.910465
H -15.592075356 8.4466744043 3.10533
H -14.808799236 9.8547571035 3.089535
H -10.54037556 11.5266837569 4.122435
H -9.56449131 12.1296885637 3.055965
H -16.98162444 15.5751087569 1.877565
H -17.95750869 16.1781135637 2.944035
H -11.005075356 8.4466501137 2.89467
H -10.221771714 9.8547085224 2.91045
H -16.516924644 12.4950751137 3.10533
H -17.300228286 13.9031335224 3.08955
H -15.12732969 11.5267323379 1.87755
H -14.151482136 12.1297209512 2.94405
H -12.39467031 15.5751573379 4.12245
H -13.370517864 16.1781459512 3.05595
O -12.821600748 12.9200301891 2.97453
O -14.700399252 8.8716051891 3.02547
O -10.43106735 11.5927864403 3.156645
O -17.09093265 15.6412114403 2.843355
O -10.113380904 8.871556608 2.974485
O -17.408619096 12.919981608 3.025515
O -15.018058176 11.5928188276 2.84334
O -12.503941824 15.6412438276 3.15666
H -2.755924644 4.3982494043 2.89467
H -3.539200764 5.8063321035 2.910465
H -6.418075356 0.3498244043 3.10533
H -5.634799236 1.7579071035 3.089535
H -1.36637556 3.4298337568 4.122435
H -0.39049131 4.0328385637 3.055965
H -7.80762444 7.4782587568 1.877565
H -8.78350869 8.0812635637 2.944035
H -1.831075356 0.3498001137 2.89467
H -1.047771714 1.7578585224 2.91045
H -7.342924644 4.3982251137 3.10533
H -8.126228286 5.8062835224 3.08955
H -5.95332969 3.429882338 1.87755
H -4.977482136 4.0328709511 2.94405
H -3.22067031 7.4783073379 4.12245
H -4.196517864 8.0812959512 3.05595
O -3.647600748 4.8231801891 2.97453
O -5.526399252 0.7747551891 3.02547
O -1.25706735 3.4959364402 3.156645
O -7.91693265 7.5443614403 2.843355
O -0.939380904 0.774706608 2.974485
O -8.234619096 4.823131608 3.025515
O -5.844058176 3.4959688277 2.84334
O -3.329941824 7.5443938277 3.15666
H -2.755924644 12.4950994043 2.89467
H -3.539200764 13.9031821035 2.910465
H -6.418075356 8.4466744043 3.10533
H -5.634799236 9.8547571035 3.089535
H -1.36637556 11.5266837569 4.122435
H -0.39049131 12.1296885637 3.055965
H -7.80762444 15.5751087569 1.877565
H -8.78350869 16.1781135637 2.944035
H -1.831075356 8.4466501137 2.89467
H -1.047771714 9.8547085224 2.91045
H -7.342924644 12.4950751137 3.10533
H -8.126228286 13.9031335224 3.08955
H -5.95332969 11.5267323379 1.87755
H -4.977482136 12.1297209512 2.94405
H -3.22067031 15.5751573379 4.12245
H -4.196517864 16.1781459512 3.05595
O -3.647600748 12.9200301891 2.97453
O -5.526399252 8.8716051891 3.02547
O -1.25706735 11.5927864403 3.156645
O -7.91693265 15.6412114403 2.843355
O -0.939380904 8.871556608 2.974485
O -8.234619096 12.919981608 3.025515
O -5.844058176 11.5928188276 2.84334
O -3.329941824 15.6412438276 3.15666
H -11.929924644 20.5919494043 2.89467
H -12.713200764 22.0000321035 2.910465
H -15.592075356 16.5435244043 3.10533
H -14.808799236 17.9516071035 3.089535
H -10.54037556 19.6235337569 4.122435
H -9.56449131 20.2265385637 3.055965
H -16.98162444 23.6719587568 1.877565
H -17.95750869 24.2749635637 2.944035
H -11.005075356 16.5435001137 2.89467
H -10.221771714 17.9515585224 2.91045
H -16.516924644 20.5919251137 3.10533
H -17.300228286 21.9999835224 3.08955
H -15.12732969 19.623582338 1.87755
H -14.151482136 20.2265709511 2.94405
H -12.39467031 23.6720073379 4.12245
H -13.370517864 24.2749959512 3.05595
O -12.821600748 21.0168801891 2.97453
O -14.700399252 16.9684551891 3.02547
O -10.43106735 19.6896364402 3.156645
O -17.09093265 23.7380614403 2.843355
O -10.113380904 16.968406608 2.974485
O -17.408619096 21.016831608 3.025515
O -15.018058176 19.6896688276 2.84334
O -12.503941824 23.7380938277 3.15666
H -11.929924644 28.6887994042 2.89467
H -12.713200764 30.0968821035 2.910465
H -15.592075356 24.6403744043 3.10533
H -14.808799236 26.0484571035 3.089535
H -10.54037556 27.7203837569 4.122435
H -9.56449131 28.3233885638 3.055965
H -16.98162444 31.7688087568 1.877565
H -17.95750869 32.3718135637 2.944035
H -11.005075356 24.6403501137 2.89467
H -10.221771714 26.0484085224 2.91045
H -16.516924644 28.6887751137 3.10533
H -17.300228286 30.0968335224 3.08955
H -15.12732969 27.720432338 1.87755
H -14.151482136 28.3234209511 2.94405
H -12.39467031 31.7688573379 4.12245
H -13.370517864 32.3718459512 3.05595
O -12.821600748 29.1137301891 2.97453
O -14.700399252 25.0653051891 3.02547
O -10.43106735 27.7864864403 3.156645
O -17.09093265 31.8349114403 2.843355
O -10.113380904 25.065256608 2.974485
O -17.408619096 29.113681608 3.025515
O -15.018058176 27.7865188276 2.84334
O -12.503941824 31.8349438277 3.15666
H -2.755924644 20.5919494043 2.89467
H -3.539200764 22.0000321035 2.910465
H -6.418075356 16.5435244043 3.10533
H -5.634799236 17.9516071035 3.089535
H -1.36637556 19.6235337569 4.122435
H -0.39049131 20.2265385637 3.055965
H -7.80762444 23.6719587568 1.877565
H -8.78350869 24.2749635637 2.944035
H -1.831075356 16.5435001137 2.89467
H -1.047771714 17.9515585224 2.91045
H -7.342924644 20.5919251137 3.10533
H -8.126228286 21.9999835224 3.08955
H -5.95332969 19.623582338 1.87755
H -4.977482136 20.2265709511 2.94405
H -3.22067031 23.6720073379 4.12245
H -4.196517864 24.2749959512 3.05595
O -3.647600748 21.0168801891 2.97453
O -5.526399252 16.9684551891 3.02547
O -1.25706735 19.6896364402 3.156645
O -7.91693265 23.7380614403 2.843355
O -0.939380904 16.968406608 2.974485
O -8.234619096 21.016831608 3.025515
O -5.844058176 19.6896688276 2.84334
O -3.329941824 23.7380938277 3.15666
H -2.755924644 28.6887994042 2.89467
H -3.539200764 30.0968821035 2.910465
H -6.418075356 24.6403744043 3.10533
H -5.634799236 26.0484571035 3.089535
H -1.36637556 27.7203837569 4.122435
H -0.39049131 28.3233885638 3.055965
H -7.80762444 31.7688087568 1.877565
H -8.78350869 32.3718135637 2.944035
H -1.831075356 24.6403501137 2.89467
H -1.047771714 26.0484085224 2.91045
H -7.342924644 28.6887751137 3.10533
H -8.126228286 30.0968335224 3.08955
H -5.95332969 27.720432338 1.87755
H -4.977482136 28.3234209511 2.94405
H -3.22067031 31.7688573379 4.12245
H -4.196517864 32.3718459512 3.05595
O -3.647600748 29.1137301891 2.97453
O -5.526399252 25.0653051891 3.02547
O -1.25706735 27.7864864403 3.156645
O -7.91693265 31.8349114403 2.843355
O -0.939380904 25.065256608 2.974485
O -8.234619096 29.113681608 3.025515
O -5.844058176 27.7865188276 2.84334
O -3.329941824 31.8349438277 3.15666
H 6.418075356 4.3982494043 2.89467
H 5.634799236 5.8063321035 2.910465
H 2.755924644 0.3498244043 3.10533
H 3.539200764 1.7579071035 3.089535
H 7.80762444 3.4298337568 4.122435
H 8.78350869 4.0328385637 3.055965
H 1.36637556 7.4782587568 1.877565
H 0.39049131 8.0812635637 2.944035
H 7.342924644 0.3498001137 2.89467
H 8.126228286 1.7578585224 2.91045
H 1.831075356 4.3982251137 3.10533
H 1.047771714 5.8062835224 3.08955
H 3.22067031 3.429882338 1.87755
H 4.196517864 4.0328709511 2.94405
H 5.95332969 7.4783073379 4.12245
H 4.977482136 8.0812959512 3.05595
O 5.526399252 4.8231801891 2.97453
O 3.647600748 0.7747551891 3.02547
O 7.91693265 3.4959364402 3.156645
O 1.25706735 7.5443614403 2.843355
O 8.234619096 0.774706608 2.974485
O 0.939380904 4.823131608 3.025515
O 3.329941824 3.4959688277 2.84334
O 5.844058176 7.5443938277 3.15666
H 6.418075356 12.4950994043 2.89467
H 5.634799236 13.9031821035 2.910465
H 2.755924644 8.4466744043 3.10533
H 3.539200764 9.8547571035 3.089535
H 7.80762444 11.5266837569 4.122435
H 8.78350869 12.1296885637 3.055965
H 1.36637556 15.5751087569 1.877565
H 0.39049131 16.1781135637 2.944035
H 7.342924644 8.4466501137 2.89467
H 8.126228286 9.8547085224 2.91045
H 1.831075356 12.4950751137 3.10533
H 1.047771714 13.9031335224 3.08955
H 3.22067031 11.5267323379 1.87755
H 4.196517864 12.1297209512 2.94405
H 5.95332969 15.5751573379 4.12245
H 4.977482136 16.1781459512 3.05595
O 5.526399252 12.9200301891 2.97453
O 3.647600748 8.8716051891 3.02547
O 7.91693265 11.5927864403 3.156645
O 1.25706735 15.6412114403 2.843355
O 8.234619096 8.871556608 2.974485
O 0.939380904 12.919981608 3.025515
O 3.329941824 11.5928188276 2.84334
O 5.844058176 15.6412438276 3.15666
H 15.592075356 4.3982494043 2.89467
H 14.808799236 5.8063321035 2.910465
H 11.929924644 0.3498244043 3.10533
H 12.713200764 1.7579071035 3.089535
H 16.98162444 3.4298337568 4.122435
H 17.95750869 4.0328385637 3.055965
H 10.54037556 7.4782587568 1.877565
H 9.56449131 8.0812635637 2.944035
H 16.516924644 0.3498001137 2.89467
H 17.300228286 1.7578585224 2.91045
H 11.005075356 4.3982251137 3.10533
H 10.221771714 5.8062835224 3.08955
H 12.39467031 3.429882338 1.87755
H 13.370517864 4.0328709511 2.94405
H 15.12732969 7.4783073379 4.12245
H 14.151482136 8.0812959512 3.05595
O 14.700399252 4.8231801891 2.97453
O 12.821600748 0.7747551891 3.02547
O 17.09093265 3.4959364402 3.156645
O 10.43106735 7.5443614403 2.843355
O 17.408619096 0.774706608 2.974485
O 10.113380904 4.823131608 3.025515
O 12.503941824 3.4959688277 2.84334
O 15.018058176 7.5443938277 3.15666
H 15.592075356 12.4950994043 2.89467
H 14.808799236 13.9031821035 2.910465
H 11.929924644 8.4466744043 3.10533
H 12.713200764 9.8547571035 3.089535
H 16.98162444 11.5266837569 4.122435
H 17.95750869 12.1296885637 3.055965
H 10.54037556 15.5751087569 1.877565
H 9.56449131 16.1781135637 2.944035
H 16.516924644 8.4466501137 2.89467
H 17.300228286 9.8547085224 2.91045
H 11.005075356 12.4950751137 3.10533
H 10.221771714 13.9031335224 3.08955
H 12.39467031 11.5267323379 1.87755
H 13.370517864 12.1297209512 2.94405
H 15.12732969 15.5751573379 4.12245
H 14.151482136 16.1781459512 3.05595
O 14.700399252 12.9200301891 2.97453
O 12.821600748 8.8716051891 3.02547
O 17.09093265 11.5927864403 3.156645
O 10.43106735 15.6412114403 2.843355
O 17.408619096 8.871556608 2.974485
O 10.113380904 12.919981608 3.025515
O 12.503941824 11.5928188276 2.84334
O 15.018058176 15.6412438276 3.15666
H 6.418075356 20.5919494043 2.89467
H 5.634799236 22.0000321035 2.910465
H 2.755924644 16.5435244043 3.10533
H 3.539200764 17.9516071035 3.089535
H 7.80762444 19.6235337569 4.122435
H 8.78350869 20.2265385637 3.055965
H 1.36637556 23.6719587568 1.877565
H 0.39049131 24.2749635637 2.944035
H 7.342924644 16.5435001137 2.89467
H 8.126228286 17.9515585224 2.91045
H 1.831075356 20.5919251137 3.10533
H 1.047771714 21.9999835224 3.08955
H 3.22067031 19.623582338 1.87755
H 4.196517864 20.2265709511 2.94405
H 5.95332969 23.6720073379 4.12245
H 4.977482136 24.2749959512 3.05595
O 5.526399252 21.0168801891 2.97453
O 3.647600748 16.9684551891 3.02547
O 7.91693265 19.6896364402 3.156645
O 1.25706735 23.7380614403 2.843355
O 8.234619096 16.968406608 2.974485
O 0.939380904 21.016831608 3.025515
O 3.329941824 19.6896688276 2.84334
O 5.844058176 23.7380938277 3.15666
H 6.418075356 28.6887994042 2.89467
H 5.634799236 30.0968821035 2.910465
H 2.755924644 24.6403744043 3.10533
H 3.539200764 26.0484571035 3.089535
H 7.80762444 27.7203837569 4.122435
H 8.78350869 28.3233885638 3.055965
H 1.36637556 31.7688087568 1.877565
H 0.39049131 32.3718135637 2.944035
H 7.342924644 24.6403501137 2.89467
H 8.126228286 26.0484085224 2.91045
H 1.831075356 28.6887751137 3.10533
H 1.047771714 30.0968335224 3.08955
H 3.22067031 27.720432338 1.87755
H 4.196517864 28.3234209511 2.94405
H 5.95332969 31.7688573379 4.12245
H 4.977482136 32.3718459512 3.05595
O 5.526399252 29.1137301891 2.97453
O 3.647600748 25.0653051891 3.02547
O 7.91693265 27.7864864403 3.156645
O 1.25706735 31.8349114403 2.843355
O 8.234619096 25.065256608 2.974485
O 0.939380904 29.113681608 3.025515
O 3.329941824 27.7865188276 2.84334
O 5.844058176 31.8349438277 3.15666
H 15.592075356 20.5919494043 2.89467
H 14.808799236 22.0000321035 2.910465
H 11.929924644 16.5435244043 3.10533
H 12.713200764 17.9516071035 3.089535
H 16.98162444 19.6235337569 4.122435
H 17.95750869 20.2265385637 3.055965
H 10.54037556 23.6719587568 1.877565
H 9.56449131 24.2749635637 2.944035
H 16.516924644 16.5435001137 2.89467
H 17.300228286 17.9515585224 2.91045
H 11.005075356 20.5919251137 3.10533
H 10.221771714 21.9999835224 3.08955
H 12.39467031 19.623582338 1.87755
H 13.370517864 20.2265709511 2.94405
H 15.12732969 23.6720073379 4.12245
H 14.151482136 24.2749959512 3.05595
O 14.700399252 21.0168801891 2.97453
O 12.821600748 16.9684551891 3.02547
O 17.09093265 19.6896364402 3.156645
O 10.43106735 23.7380614403 2.843355
O 17.408619096 16.968406608 2.974485
O 10.113380904 21.016831608 3.025515
O 12.503941824 19.6896688276 2.84334
O 15.018058176 23.7380938277 3.15666
H 15.592075356 28.6887994042 2.89467
H 14.808799236 30.0968821035 2.910465
H 11.929924644 24.6403744043 3.10533
H 12.713200764 26.0484571035 3.089535
H 16.98162444 27.7203837569 4.122435
H 17.95750869 28.3233885638 3.055965
H 10.54037556 31.7688087568 1.877565
H 9.56449131 32.3718135637 2.944035
H 16.516924644 24.6403501137 2.89467
H 17.300228286 26.0484085224 2.91045
H 11.005075356 28.6887751137 3.10533
H 10.221771714 30.0968335224 3.08955
H 12.39467031 27.720432338 1.87755
H 13.370517864 28.3234209511 2.94405
H 15.12732969 31.7688573379 4.12245
H 14.151482136 32.3718459512 3.05595
O 14.700399252 29.1137301891 2.97453
O 12.821600748 25.0653051891 3.02547
O 17.09093265 27.7864864403 3.156645
O 10.43106735 31.8349114403 2.843355
O 17.408619096 25.065256608 2.974485
O 10.113380904 29.113681608 3.025515
O 12.503941824 27.7865188276 2.84334
O 15.018058176 31.8349438277 3.15666
H 24.766075356 4.3982494043 2.89467
H 23.982799236 5.8063321035 2.910465
H 21.103924644 0.3498244043 3.10533
H 21.887200764 1.7579071035 3.089535
H 26.15562444 3.4298337568 4.122435
H 27.13150869 4.0328385637 3.055965
H 19.71437556 7.4782587568 1.877565
H 18.73849131 8.0812635637 2.944035
H 25.690924644 0.3498001137 2.89467
H 26.474228286 1.7578585224 2.91045
H 20.179075356 4.3982251137 3.10533
H 19.395771714 5.8062835224 3.08955
H 21.56867031 3.429882338 1.87755
H 22.544517864 4.0328709511 2.94405
H 24.30132969 7.4783073379 4.12245
H 23.325482136 8.0812959512 3.05595
O 23.874399252 4.8231801891 2.97453
O 21.995600748 0.7747551891 3.02547
O 26.26493265 3.4959364402 3.156645
O 19.60506735 7.5443614403 2.843355
O 26.582619096 0.774706608 2.974485
O 19.287380904 4.823131608 3.025515
O 21.677941824 3.4959688277 2.84334
O 24.192058176 7.5443938277 3.15666
H 24.766075356 12.4950994043 2.89467
H 23.982799236 13.9031821035 2.910465
H 21.103924644 8.4466744043 3.10533
H 21.887200764 9.8547571035 3.089535
H 26.15562444 11.5266837569 4.122435
H 27.13150869 12.1296885637 3.055965
H 19.71437556 15.5751087569 1.877565
H 18.73849131 16.1781135637 2.944035
H 25.690924644 8.4466501137 2.89467
H 26.474228286 9.8547085224 2.91045
H 20.179075356 12.4950751137 3.10533
H 19.395771714 13.9031335224 3.08955
H 21.56867031 11.5267323379 1.87755
H 22.544517864 12.1297209512 2.94405
H 24.30132969 15.5751573379 4.12245
H 23.325482136 16.1781459512 3.05595
O 23.874399252 12.9200301891 2.97453
O 21.995600748 8.8716051891 3.02547
O 26.26493265 11.5927864403 3.156645
O 19.60506735 15.6412114403 2.843355
O 26.582619096 8.871556608 2.974485
O 19.287380904 12.919981608 3.025515
O 21.677941824 11.5928188276 2.84334
O 24.192058176 15.6412438276 3.15666
H 33.940075356 4.3982494043 2.89467
H 33.156799236 5.8063321035 2.910465
H 30.277924644 0.3498244043 3.10533
H 31.061200764 1.7579071035 3.089535
H 35.32962444 3.4298337568 4.122435
H 36.30550869 4.0328385637 3.055965
H 28.88837556 7.4782587568 1.877565
H 27.91249131 8.0812635637 2.944035
H 34.864924644 0.3498001137 2.89467
H 35.648228286 1.7578585224 2.91045
H 29.353075356 4.3982251137 3.10533
H 28.569771714 5.8062835224 3.08955
H 30.74267031 3.429882338 1.87755
H 31.718517864 4.0328709511 2.94405
H 33.47532969 7.4783073379 4.12245
H 32.499482136 8.0812959512 3.05595
O 33.048399252 4.8231801891 2.97453
O 31.169600748 0.7747551891 3.02547
O 35.43893265 3.4959364402 3.156645
O 28.77906735 7.5443614403 2.843355
O 35.756619096 0.774706608 2.974485
O 28.461380904 4.823131608 3.025515
O 30.851941824 3.4959688277 2.84334
O 33.366058176 7.5443938277 3.15666
H 33.940075356 12.4950994043 2.89467
H 33.156799236 13.9031821035 2.910465
H 30.277924644 8.4466744043 3.10533
H 31.061200764 9.8547571035 3.089535
H 35.32962444 11.5266837569 4.122435
H 36.30550869 12.1296885637 3.055965
H 28.88837556 15.5751087569 1.877565
H 27.91249131 16.1781135637 2.944035
H 34.864924644 8.4466501137 2.89467
H 35.648228286 9.8547085224 2.91045
H 29.353075356 12.4950751137 3.10533
H 28.569771714 13.9031335224 3.08955
H 30.74267031 11.5267323379 1.87755
H 31.718517864 12.1297209512 2.94405
H 33.47532969 15.5751573379 4.12245
H 32.499482136 16.1781459512 3.05595
O 33.048399252 12.9200301891 2.97453
O 31.169600748 8.8716051891 3.02547
O 35.43893265 11.5927864403 3.156645
O 28.77906735 15.6412114403 2.843355
O 35.756619096 8.871556608 2.974485
O 28.461380904 12.919981608 3.025515
O 30.851941824 11.5928188276 2.84334
O 33.366058176 15.6412438276 3.15666
H 24.766075356 20.5919494043 2.89467
H 23.982799236 22.0000321035 2.910465
H 21.103924644 16.5435244043 3.10533
H 21.887200764 17.9516071035 3.089535
H 26.15562444 19.6235337569 4.122435
H 27.13150869 20.2265385637 3.055965
H 19.71437556 23.6719587568 1.877565
H 18.73849131 24.2749635637 2.944035
H 25.690924644 16.5435001137 2.89467
H 26.474228286 17.9515585224 2.91045
H 20.179075356 20.5919251137 3.10533
H 19.395771714 21.9999835224 3.08955
H 21.56867031 19.623582338 1.87755
H 22.544517864 20.2265709511 2.94405
H 24.30132969 23.6720073379 4.12245
H 23.325482136 24.2749959512 3.05595
O 23.874399252 21.0168801891 2.97453
O 21.995600748 16.9684551891 3.02547
O 26.26493265 19.6896364402 3.156645
O 19.60506735 23.7380614403 2.843355
O 26.582619096 16.968406608 2.974485
O 19.287380904 21.016831608 3.025515
O 21.677941824 19.6896688276 2.84334
O 24.192058176 23.7380938277 3.15666
H 24.766075356 28.6887994042 2.89467
H 23.982799236 30.0968821035 2.910465
H 21.103924644 24.6403744043 3.10533
H 21.887200764 26.0484571035 3.089535
H 26.15562444 27.7203837569 4.122435
H 27.13150869 28.3233885638 3.055965
H 19.71437556 31.7688087568 1.877565
H 18.73849131 32.3718135637 2.944035
H 25.690924644 24.6403501137 2.89467
H 26.474228286 26.0484085224 2.91045
H 20.179075356 28.6887751137 3.10533
H 19.395771714 30.0968335224 3.08955
H 21.56867031 27.720432338 1.87755
H 22.544517864 28.3234209511 2.94405
H 24.30132969 31.7688573379 4.12245
H 23.325482136 32.3718459512 3.05595
O 23.874399252 29.1137301891 2.97453
O 21.995600748 25.0653051891 3.02547
O 26.26493265 27.7864864403 3.156645
O 19.60506735 31.8349114403 2.843355
O 26.582619096 25.065256608 2.974485
O 19.287380904 29.113681608 3.025515
O 21.677941824 27.7865188276 2.84334
O 24.192058176 31.8349438277 3.15666
H 33.940075356 20.5919494043 2.89467
H 33.156799236 22.0000321035 2.910465
H 30.277924644 16.5435244043 3.10533
H 31.061200764 17.9516071035 3.089535
H 35.32962444 19.6235337569 4.122435
H 36.30550869 20.2265385637 3.055965
H 28.88837556 23.6719587568 1.877565
H 27.91249131 24.2749635637 2.944035
H 34.864924644 16.5435001137 2.89467
H 35.648228286 17.9515585224 2.91045
H 29.353075356 20.5919251137 3.10533
H 28.569771714 21.9999835224 3.08955
H 30.74267031 19.623582338 1.87755
H 31.718517864 20.2265709511 2.94405
H 33.47532969 23.6720073379 4.12245
H 32.499482136 24.2749959512 3.05595
O 33.048399252 21.0168801891 2.97453
O 31.169600748 16.9684551891 3.02547
O 35.43893265 19.6896364402 3.156645
O 28.77906735 23.7380614403 2.843355
O 35.756619096 16.968406608 2.974485
O 28.461380904 21.016831608 3.025515
O 30.851941824 19.6896688276 2.84334
O 33.366058176 23.7380938277 3.15666
H 33.940075356 28.6887994042 2.89467
H 33.156799236 30.0968821035 2.910465
H 30.277924644 24.6403744043 3.10533
H 31.061200764 26.0484571035 3.089535
H 35.32962444 27.7203837569 4.122435
H 36.30550869 28.3233885638 3.055965
H 28.88837556 31.7688087568 1.877565
H 27.91249131 32.3718135637 2.944035
H 34.864924644 24.6403501137 2.89467
H 35.648228286 26.0484085224 2.91045
H 29.353075356 28.6887751137 3.10533
H 28.569771714 30.0968335224 3.08955
H 30.74267031 27.720432338 1.87755
H 31.718517864 28.3234209511 2.94405
H 33.47532969 31.7688573379 4.12245
H 32.499482136 32.3718459512 3.05595
O 33.048399252 29.1137301891 2.97453
O 31.169600748 25.0653051891 3.02547
O 35.43893265 27.7864864403 3.156645
O 28.77906735 31.8349114403 2.843355
O 35.756619096 25.065256608 2.974485
O 28.461380904 29.113681608 3.025515
O 30.851941824 27.7865188276 2.84334
O 33.366058176 31.8349438277 3.15666
