48
Lattice="8.77782 0.0 0.0 0.0 10.82354 0.0 0.0 0.0 30.0" Properties=species:S:1:pos:R:3
H 3.97226 5.8365 3.0351
H 3.2621 4.65553 3.79163
H 7.65101 4.65553 3.79163
H 8.36116 5.8365 3.0351
H 1.02674 7.13888 2.11066
H 1.82704 6.15519 3.04921
H 2.31286 8.49144 2.95079
H 3.11315 7.50775 3.88934
H 5.41565 7.13888 2.11066
H 6.21595 6.15519 3.04921
H 6.70177 8.49144 2.95079
H 7.50206 7.50775 3.88934
H 4.55655 8.81013 2.9649
H 5.2667 9.99111 2.20837
H 0.877792 9.99111 2.20837
H 0.167641 8.81013 2.9649
H 3.97226 11.24827 3.0351
H 3.2621 10.0673 3.79163
H 7.65101 10.0673 3.79163
H 8.36116 11.24827 3.0351
H 1.02674 12.55065 2.11066
H 1.82704 11.56696 3.04921
H 2.31286 13.90321 2.95079
H 3.11315 12.91952 3.88934
H 5.41565 12.55065 2.11066
H 6.21595 11.56696 3.04921
H 6.70177 13.90321 2.95079
H 7.50206 12.91952 3.88934
H 4.55655 14.2219 2.9649
H 5.2667 15.40288 2.20837
H 0.877792 15.40288 2.20837
H 0.167641 14.2219 2.9649
O 3.11229 5.34291 3.1263
O 7.5012 5.34291 3.1263
O 0.934212 6.59003 2.90424
O 3.20568 8.0566 3.09576
O 5.32312 6.59003 2.90424
O 7.59459 8.0566 3.09576
O 5.41652 9.30373 2.8737
O 1.02761 9.30373 2.8737
O 3.11229 10.75468 3.1263
O 7.5012 10.75468 3.1263
O 0.934212 12.0018 2.90424
O 3.20568 13.46837 3.09576
O 5.32312 12.0018 2.90424
O 7.59459 13.46837 3.09576
O 5.41652 14.7155 2.8737
O 1.02761 14.7155 2.8737
